
     RDKit          2D

 15 14  0  0  0  0  0  0  0  0999 V2000
    1.5395   -1.2375    0.0000 C   0  0  0  0  0  0  0  0  0  0  0  0
    0.8250   -0.8250    0.0000 C   0  0  0  0  0  0  0  0  0  0  0  0
    0.8250    0.0000    0.0000 C   0  0  0  0  0  0  0  0  0  0  0  0
    2.2539   -0.8250    0.0000 O   0  0  0  0  0  0  0  0  0  0  0  0
    0.8250    0.8250    0.0000 O   0  0  0  0  0  0  0  0  0  0  0  0
    2.9684   -1.2375    0.0000 N   0  0  0  0  0  0  0  0  0  0  0  0
    3.6829   -0.8250    0.0000 O   0  0  0  0  0  0  0  0  0  0  0  0
    2.9684   -2.0625    0.0000 O   0  0  0  0  0  0  0  0  0  0  0  0
    0.1105    1.2375    0.0000 N   0  0  0  0  0  0  0  0  0  0  0  0
   -0.6039    0.8250    0.0000 O   0  0  0  0  0  0  0  0  0  0  0  0
    0.1105    2.0625    0.0000 O   0  0  0  0  0  0  0  0  0  0  0  0
    1.6500    0.0000    0.0000 C   0  0  0  0  0  0  0  0  0  0  0  0
    2.0625    0.7145    0.0000 C   0  0  0  0  0  0  0  0  0  0  0  0
    2.8875    0.7145    0.0000 C   0  0  0  0  0  0  0  0  0  0  0  0
    0.0000    0.0000    0.0000 C   0  0  0  0  0  0  0  0  0  0  0  0
  1  2  1  0
  2  3  1  0
  1  4  1  0
  3  5  1  0
  6  7  2  0
  6  8  1  0
  4  6  1  0
  9 10  2  0
  9 11  1  0
  5  9  1  0
 12 13  1  0
 13 14  1  0
  3 12  1  0
  3 15  1  0
M  CHG  4   6   1   8  -1   9   1  11  -1
M  END
> <chembl_id>
CHEMBL3707209

> <chembl_pref_name>
METHYLPROPYLPROPANEDIOL DINITRATE

$$$$

     RDKit          2D

 15 15  0  0  0  0  0  0  0  0999 V2000
    2.2417   -3.3167    0.0000 C   0  0  0  0  0  0  0  0  0  0  0  0
    2.2500   -2.6042    0.0000 C   0  0  0  0  0  0  0  0  0  0  0  0
    2.8542   -3.6750    0.0000 C   0  0  0  0  0  0  0  0  0  0  0  0
    1.6167   -3.6792    0.0000 C   0  0  0  0  0  0  0  0  0  0  0  0
    2.8542   -4.3917    0.0000 C   0  0  0  0  0  0  0  0  0  0  0  0
    2.8792   -2.2542    0.0000 C   0  0  0  0  0  0  0  0  0  0  0  0
    1.6250   -4.3917    0.0000 C   0  0  0  0  0  0  0  0  0  0  0  0
    1.6292   -2.2542    0.0000 O   0  0  0  0  0  0  0  0  0  0  0  0
    3.3625   -2.5167    0.0000 N   0  0  0  0  0  0  0  0  0  0  0  0
    2.2417   -4.7417    0.0000 C   0  0  0  0  0  0  0  0  0  0  0  0
    3.4792   -3.3042    0.0000 O   0  0  0  0  0  0  0  0  0  0  0  0
    0.9792   -4.7417    0.0000 O   0  0  0  0  0  0  0  0  0  0  0  0
    2.8792   -1.5417    0.0000 C   0  0  0  0  0  0  0  0  0  0  0  0
    4.0917   -3.6417    0.0000 C   0  0  0  0  0  0  0  0  0  0  0  0
    0.3625   -4.3667    0.0000 C   0  0  0  0  0  0  0  0  0  0  0  0
  2  1  1  0
  3  1  1  0
  4  1  2  0
  5  3  2  0
  6  2  1  0
  7  4  1  0
  8  2  1  0
  9  6  1  0
 10  7  2  0
 11  3  1  0
 12  7  1  0
 13  6  1  0
 14 11  1  0
 15 12  1  0
 10  5  1  0
M  END
> <chembl_id>
CHEMBL524

> <chembl_pref_name>
METHOXAMINE

$$$$

     RDKit          2D

 17 17  0  0  0  0  0  0  0  0999 V2000
    4.6042   -7.0542    0.0000 C   0  0  0  0  0  0  0  0  0  0  0  0
    3.9792   -7.4042    0.0000 C   0  0  0  0  0  0  0  0  0  0  0  0
    4.6167   -6.3542    0.0000 O   0  0  0  0  0  0  0  0  0  0  0  0
    5.2042   -7.4292    0.0000 N   0  0  0  0  0  0  0  0  0  0  0  0
    3.3750   -7.0417    0.0000 C   0  0  0  0  0  0  0  0  0  0  0  0
    3.9667   -8.1167    0.0000 C   0  0  0  0  0  0  0  0  0  0  0  0
    2.7292   -8.0917    0.0000 C   0  0  0  0  0  0  0  0  0  0  0  0
    7.0667   -7.1042    0.0000 N   0  0  0  0  0  0  0  0  0  0  0  0
    2.1125   -8.4375    0.0000 N   0  0  0  0  0  0  0  0  0  0  0  0
    3.3417   -8.4625    0.0000 C   0  0  0  0  0  0  0  0  0  0  0  0
    2.7417   -7.3792    0.0000 C   0  0  0  0  0  0  0  0  0  0  0  0
    5.8292   -7.0875    0.0000 C   0  0  0  0  0  0  0  0  0  0  0  0
    6.4417   -7.4500    0.0000 C   0  0  0  0  0  0  0  0  0  0  0  0
    7.6792   -7.4792    0.0000 C   0  0  0  0  0  0  0  0  0  0  0  0
    7.0792   -6.3917    0.0000 C   0  0  0  0  0  0  0  0  0  0  0  0
    8.3042   -7.1292    0.0000 C   0  0  0  0  0  0  0  0  0  0  0  0
    7.7042   -6.0542    0.0000 C   0  0  0  0  0  0  0  0  0  0  0  0
  2  1  1  0
  3  1  2  0
  4  1  1  0
  5  2  1  0
  6  2  2  0
  7 10  2  0
  8 13  1  0
  9  7  1  0
 10  6  1  0
 11  5  2  0
 12  4  1  0
 13 12  1  0
 14  8  1  0
 15  8  1  0
 16 14  1  0
 17 15  1  0
  7 11  1  0
M  END
> <chembl_id>
CHEMBL640

> <chembl_pref_name>
PROCAINAMIDE

$$$$

     RDKit          2D

 21 22  0  0  1  0  0  0  0  0999 V2000
   -1.9833    0.4833    0.0000 N   0  0  0  0  0  0  0  0  0  0  0  0
   -1.5458   -0.2875    0.0000 C   0  0  0  0  0  0  0  0  0  0  0  0
   -2.8958    0.4833    0.0000 N   0  0  0  0  0  0  0  0  0  0  0  0
    3.3917    0.4833    0.0000 C   0  0  0  0  0  0  0  0  0  0  0  0
   -3.3208   -0.2875    0.0000 C   0  0  0  0  0  0  0  0  0  0  0  0
    2.5042    0.4833    0.0000 N   0  0  0  0  0  0  0  0  0  0  0  0
    4.2792   -1.0542    0.0000 N   0  0  0  0  0  0  0  0  0  0  0  0
    4.2792    2.0208    0.0000 N   0  0  0  0  0  0  0  0  0  0  0  0
   -1.9833   -1.0542    0.0000 C   0  0  0  0  0  0  0  0  0  0  0  0
    3.8375   -0.2875    0.0000 C   0  0  0  0  0  0  0  0  0  0  0  0
    3.8375    1.2458    0.0000 C   0  0  0  0  0  0  0  0  0  0  0  0
   -0.6375   -0.2875    0.0000 C   0  0  0  0  0  0  0  0  0  0  0  0
   -2.8958   -1.0542    0.0000 C   0  0  0  0  0  0  0  0  0  0  0  0
    2.0500   -0.2875    0.0000 N   0  0  0  0  0  0  0  0  0  0  0  0
   -4.2333   -0.2875    0.0000 O   0  0  0  0  0  0  0  0  0  0  0  0
   -0.2083   -1.0542    0.0000 C   0  0  0  0  0  0  0  0  0  0  0  0
   -0.2083    0.4833    0.0000 C   0  0  0  0  0  0  0  0  0  0  0  0
    1.1375   -0.2875    0.0000 C   0  0  0  0  0  0  0  0  0  0  0  0
    0.7042    0.4833    0.0000 C   0  0  0  0  0  0  0  0  0  0  0  0
    0.7042   -1.0542    0.0000 C   0  0  0  0  0  0  0  0  0  0  0  0
   -1.3333   -1.4792    0.0000 C   0  0  0  0  0  0  0  0  0  0  0  0
  2  1  2  0
  3  1  1  0
  4  6  2  0
  5  3  1  0
  6 14  1  0
  7 10  3  0
  8 11  3  0
  9  2  1  0
 10  4  1  0
 11  4  1  0
 12  2  1  0
 13  5  1  0
 14 18  1  0
 15  5  2  0
 16 12  2  0
 17 12  1  0
 18 19  1  0
 19 17  2  0
 20 16  1  0
  9 21  1  6
  9 13  1  0
 20 18  2  0
M  END
> <chembl_id>
CHEMBL2051955

> <chembl_pref_name>
LEVOSIMENDAN

$$$$

     RDKit          2D

 19 20  0  0  0  0  0  0  0  0999 V2000
    1.8042    0.4208    0.0000 C   0  0  0  0  0  0  0  0  0  0  0  0
   -0.1875    0.4625    0.0000 C   0  0  0  0  0  0  0  0  0  0  0  0
    0.8167    1.0208    0.0000 C   0  0  0  0  0  0  0  0  0  0  0  0
   -2.1833    0.4958    0.0000 N   0  0  0  0  0  0  0  0  0  0  0  0
   -1.1833    1.0583    0.0000 C   0  0  0  0  0  0  0  0  0  0  0  0
    1.7792   -0.7292    0.0000 C   0  0  0  0  0  0  0  0  0  0  0  0
   -0.2125   -0.6917    0.0000 C   0  0  0  0  0  0  0  0  0  0  0  0
   -4.2083   -0.6167    0.0000 N   0  0  0  0  0  0  0  0  0  0  0  0
    0.7792   -1.2792    0.0000 C   0  0  0  0  0  0  0  0  0  0  0  0
    2.8125    0.9833    0.0000 O   0  0  0  0  0  0  0  0  0  0  0  0
    0.8375    2.1708    0.0000 O   0  0  0  0  0  0  0  0  0  0  0  0
    2.7667   -1.3167    0.0000 O   0  0  0  0  0  0  0  0  0  0  0  0
   -2.2083   -0.6542    0.0000 C   0  0  0  0  0  0  0  0  0  0  0  0
   -3.1708    1.0958    0.0000 C   0  0  0  0  0  0  0  0  0  0  0  0
   -4.1833    0.5333    0.0000 C   0  0  0  0  0  0  0  0  0  0  0  0
   -3.2125   -1.2125    0.0000 C   0  0  0  0  0  0  0  0  0  0  0  0
    3.8000    0.3875    0.0000 C   0  0  0  0  0  0  0  0  0  0  0  0
    1.8417    2.7250    0.0000 C   0  0  0  0  0  0  0  0  0  0  0  0
    2.7500   -2.4750    0.0000 C   0  0  0  0  0  0  0  0  0  0  0  0
  2  3  2  0
  3  1  1  0
  4  5  1  0
  5  2  1  0
  6  1  2  0
  7  9  2  0
  8 15  1  0
  9  6  1  0
 10  1  1  0
 11  3  1  0
 12  6  1  0
 13  4  1  0
 14  4  1  0
 15 14  1  0
 16 13  1  0
 17 10  1  0
 18 11  1  0
 19 12  1  0
  2  7  1  0
 16  8  1  0
M  END
> <chembl_id>
CHEMBL203266

> <chembl_pref_name>
TRIMETAZIDINE

$$$$

     RDKit          2D

 16 17  0  0  0  0  0  0  0  0999 V2000
   10.4143   -9.0213    0.0000 C   0  0  0  0  0  0  0  0  0  0  0  0
   11.1399   -8.6106    0.0000 C   0  0  0  0  0  0  0  0  0  0  0  0
   10.4095   -9.8363    0.0000 C   0  0  0  0  0  0  0  0  0  0  0  0
   11.8406   -9.0298    0.0000 C   0  0  0  0  0  0  0  0  0  0  0  0
   11.1301  -10.2581    0.0000 N   0  0  0  0  0  0  0  0  0  0  0  0
   11.8357   -9.8448    0.0000 C   0  0  0  0  0  0  0  0  0  0  0  0
    9.6937   -8.6145    0.0000 S   0  0  0  0  0  0  0  0  0  0  0  0
   12.5463  -10.2664    0.0000 C   0  0  0  0  0  0  0  0  0  0  0  0
   12.5561   -8.6191    0.0000 C   0  0  0  0  0  0  0  0  0  0  0  0
   11.1447   -7.7908    0.0000 O   0  0  0  0  0  0  0  0  0  0  0  0
    9.6837   -7.7821    0.0000 O   0  0  0  0  0  0  0  0  0  0  0  0
   13.2644   -9.8532    0.0000 C   0  0  0  0  0  0  0  0  0  0  0  0
   13.2692   -9.0382    0.0000 C   0  0  0  0  0  0  0  0  0  0  0  0
   11.1251  -11.0854    0.0000 C   0  0  0  0  0  0  0  0  0  0  0  0
   13.9999  -10.2651    0.0000 F   0  0  0  0  0  0  0  0  0  0  0  0
    8.9832   -9.0129    0.0000 C   0  0  0  0  0  0  0  0  0  0  0  0
  2  1  1  0
  3  1  2  0
  4  2  1  0
  5  3  1  0
  6  5  1  0
  7  1  1  0
  8  6  1  0
  9  4  1  0
 10  2  2  0
 11  7  1  0
 12  8  2  0
 13  9  2  0
 14  5  1  0
 15 12  1  0
 16  7  1  0
  4  6  2  0
 13 12  1  0
M  CHG  2   7   1  11  -1
M  END
> <chembl_id>
CHEMBL1908307

> <chembl_pref_name>
FLOSEQUINAN

$$$$

     RDKit          2D

 15 16  0  0  0  0  0  0  0  0999 V2000
    0.7417   -0.8417    0.0000 N   0  0  0  0  0  0  0  0  0  0  0  0
    0.7417   -2.3167    0.0000 C   0  0  0  0  0  0  0  0  0  0  0  0
   -0.4833   -0.1500    0.0000 C   0  0  0  0  0  0  0  0  0  0  0  0
    2.1292   -2.7292    0.0000 N   0  0  0  0  0  0  0  0  0  0  0  0
   -0.4833   -3.0167    0.0000 N   0  0  0  0  0  0  0  0  0  0  0  0
   -1.7583   -0.8417    0.0000 C   0  0  0  0  0  0  0  0  0  0  0  0
    2.1292   -0.4375    0.0000 N   0  0  0  0  0  0  0  0  0  0  0  0
    2.9542   -1.5417    0.0000 C   0  0  0  0  0  0  0  0  0  0  0  0
   -1.7583   -2.3167    0.0000 C   0  0  0  0  0  0  0  0  0  0  0  0
   -0.4833    1.2833    0.0000 N   0  0  0  0  0  0  0  0  0  0  0  0
   -2.9625   -3.0542    0.0000 C   0  0  0  0  0  0  0  0  0  0  0  0
   -1.6708    2.0000    0.0000 C   0  0  0  0  0  0  0  0  0  0  0  0
    0.7417    1.9583    0.0000 C   0  0  0  0  0  0  0  0  0  0  0  0
    0.7792    3.3708    0.0000 C   0  0  0  0  0  0  0  0  0  0  0  0
   -2.9625    1.3208    0.0000 C   0  0  0  0  0  0  0  0  0  0  0  0
  2  1  1  0
  3  1  1  0
  4  2  2  0
  5  2  1  0
  6  3  2  0
  7  1  1  0
  8  7  2  0
  9  6  1  0
 10  3  1  0
 11  9  1  0
 12 10  1  0
 13 10  1  0
 14 13  1  0
 15 12  1  0
  4  8  1  0
  5  9  2  0
M  END
> <chembl_id>
CHEMBL132767

> <chembl_pref_name>
TRAPIDIL

$$$$

     RDKit          2D

 15 15  0  0  0  0  0  0  0  0999 V2000
   -0.7708    0.1000    0.0000 C   0  0  0  0  0  0  0  0  0  0  0  0
   -1.3833   -0.2542    0.0000 C   0  0  0  0  0  0  0  0  0  0  0  0
   -0.1583   -0.2417    0.0000 C   0  0  0  0  0  0  0  0  0  0  0  0
   -1.3833   -0.9625    0.0000 C   0  0  0  0  0  0  0  0  0  0  0  0
   -0.1500   -0.9542    0.0000 C   0  0  0  0  0  0  0  0  0  0  0  0
    1.6875    0.1125    0.0000 N   0  0  0  0  0  0  0  0  0  0  0  0
   -0.7708   -1.3167    0.0000 C   0  0  0  0  0  0  0  0  0  0  0  0
    1.0667   -0.2417    0.0000 C   0  0  0  0  0  0  0  0  0  0  0  0
    0.4542    0.1083    0.0000 C   0  0  0  0  0  0  0  0  0  0  0  0
   -2.0000    0.0958    0.0000 O   0  0  0  0  0  0  0  0  0  0  0  0
   -1.9958   -1.3167    0.0000 O   0  0  0  0  0  0  0  0  0  0  0  0
    0.4417    0.8208    0.0000 O   0  0  0  0  0  0  0  0  0  0  0  0
    2.3000   -0.2375    0.0000 C   0  0  0  0  0  0  0  0  0  0  0  0
    2.9167    0.1208    0.0000 C   0  0  0  0  0  0  0  0  0  0  0  0
    2.3042   -0.9500    0.0000 C   0  0  0  0  0  0  0  0  0  0  0  0
  2  1  2  0
  3  1  1  0
  4  2  1  0
  5  3  2  0
  6  8  1  0
  7  5  1  0
  8  9  1  0
  9  3  1  0
 10  2  1  0
 11  4  1  0
 12  9  1  0
 13  6  1  0
 14 13  1  0
 15 13  1  0
  7  4  2  0
M  END
> <chembl_id>
CHEMBL434

> <chembl_pref_name>
ISOPROTERENOL

$$$$

     RDKit          2D

 17 17  0  0  1  0  0  0  0  0999 V2000
   -7.3955   -3.4768    0.0000 C   0  0  0  0  0  0  0  0  0  0  0  0
   -8.1100   -3.8893    0.0000 C   0  0  0  0  0  0  0  0  0  0  0  0
   -8.1100   -4.7143    0.0000 C   0  0  0  0  0  0  0  0  0  0  0  0
   -7.3955   -5.1268    0.0000 C   0  0  0  0  0  0  0  0  0  0  0  0
   -6.6810   -4.7143    0.0000 C   0  0  0  0  0  0  0  0  0  0  0  0
   -6.6810   -3.8893    0.0000 C   0  0  0  0  0  0  0  0  0  0  0  0
   -8.8245   -5.1268    0.0000 O   0  0  0  0  0  0  0  0  0  0  0  0
   -5.9666   -3.4768    0.0000 O   0  0  0  0  0  0  0  0  0  0  0  0
   -5.2521   -3.8893    0.0000 C   0  0  0  0  0  0  0  0  0  0  0  0
   -4.5376   -3.4768    0.0000 C   0  0  0  0  0  0  0  0  0  0  0  0
   -3.8232   -3.8893    0.0000 C   0  0  0  0  0  0  0  0  0  0  0  0
   -4.5376   -2.6518    0.0000 O   0  0  0  0  0  0  0  0  0  0  0  0
   -3.1087   -3.4768    0.0000 N   0  0  0  0  0  0  0  0  0  0  0  0
   -2.3942   -3.8892    0.0000 C   0  0  0  0  0  0  0  0  0  0  0  0
   -1.6797   -3.4767    0.0000 C   0  0  0  0  0  0  0  0  0  0  0  0
   -2.3942   -4.7142    0.0000 C   0  0  0  0  0  0  0  0  0  0  0  0
   -3.8231   -3.0643    0.0000 H   0  0  0  0  0  0  0  0  0  0  0  0
  1  2  1  0
  1  6  2  0
  2  3  2  0
  3  4  1  0
  4  5  2  0
  5  6  1  0
  3  7  1  0
  6  8  1  0
  8  9  1  0
  9 10  1  0
 10 11  1  0
 10 12  1  1
 11 13  1  0
 13 14  1  0
 14 15  1  0
 14 16  1  0
 10 17  1  6
M  END
> <chembl_id>
CHEMBL1160714

> <chembl_pref_name>
PRENALTEROL

$$$$
